@<TRIPOS>MOLECULE
crys_22u_h.pdb
 52 54 0 0 0
SMALL
GASTEIGER

@<TRIPOS>ATOM
      1  C1        19.9730  -12.7300   20.3520 C.3     1  22U1       -0.0350
      2  H11       20.5640  -13.0530   19.4950 H       1  22U1        0.0281
      3  H12       20.6880  -12.2660   21.0320 H       1  22U1        0.0281
      4  C2        19.2070  -13.9150   20.9810 C.3     1  22U1        0.0157
      5  H21       18.8160  -14.5970   20.2260 H       1  22U1        0.0465
      6  H22       19.7990  -14.5670   21.6240 H       1  22U1        0.0465
      7  N3        18.1330  -13.1630   21.6570 N.am    1  22U1       -0.2853
      8  C4        17.8360  -11.8460   21.1120 C.3     1  22U1        0.1024
      9  H41       17.9440  -11.0370   21.8340 H       1  22U1        0.0597
     10  C5        18.8240  -11.7770   19.9170 C.3     1  22U1       -0.0243
     11  H51       18.3530  -12.1260   18.9980 H       1  22U1        0.0288
     12  H52       19.1660  -10.7640   19.7030 H       1  22U1        0.0288
     13  C6        17.4490  -13.6090   22.7270 C.2     1  22U1        0.2646
     14  O7        16.4680  -12.9820   23.1440 O.2     1  22U1       -0.2694
     15  C8        17.6270  -15.0160   23.2870 C.3     1  22U1        0.0574
     16  H81       18.3560  -15.5640   22.6910 H       1  22U1        0.0952
     17  N9        16.3050  -15.7140   23.2320 N.4     1  22U1        0.2276
     18  H91       16.0030  -15.9390   24.1690 H       1  22U1        0.2002
     19  H92       16.3940  -16.5640   22.6940 H       1  22U1        0.2002
     20  H93       15.6240  -15.1100   22.7950 H       1  22U1        0.2002
     21  CB        18.1650  -14.9640   24.7310 C.3     1  22U1        0.0241
     22  HB1       18.2170  -15.9800   25.1240 H       1  22U1        0.0373
     23  HB2       17.4860  -14.3460   25.3190 H       1  22U1        0.0373
     24  CG        19.5640  -14.3300   24.8080 C.ar    1  22U1       -0.0415
     25  CD1       19.7440  -13.1800   25.5860 C.ar    1  22U1       -0.0584
     26  HD1       18.8780  -12.7320   26.0740 H       1  22U1        0.0620
     27  CD2       20.6640  -14.8530   24.1100 C.ar    1  22U1       -0.0584
     28  HD2       20.5450  -15.7330   23.4780 H       1  22U1        0.0620
     29  CE1       20.9960  -12.5890   25.7570 C.ar    1  22U1       -0.0615
     30  HE1       21.1380  -11.7700   26.4620 H       1  22U1        0.0618
     31  CE2       21.9170  -14.2340   24.2320 C.ar    1  22U1       -0.0615
     32  HE2       22.7800  -14.6630   23.7230 H       1  22U1        0.0618
     33  CZ        22.0730  -13.0830   24.9910 C.ar    1  22U1       -0.0617
     34  HZ        23.0290  -12.5600   24.9950 H       1  22U1        0.0618
     35  C10       16.4020  -11.7500   20.6340 C.2     1  22U1        0.2338
     36  O10       15.8850  -12.6720   20.0140 O.2     1  22U1       -0.2738
     37  N11       15.7260  -10.6080   20.9320 N.am    1  22U1       -0.3097
     38 H111       16.1370   -9.8960   21.5190 H       1  22U1        0.1491
     39  C12       14.3690  -10.4430   20.3670 C.3     1  22U1        0.0369
     40 H121       14.3300   -9.5260   19.7780 H       1  22U1        0.0512
     41 H122       14.1350  -11.2950   19.7280 H       1  22U1        0.0512
     42  C31       13.2880   -9.2590   22.3860 C.ar    1  22U1       -0.0387
     43  H31       13.9850   -8.4300   22.2650 H       1  22U1        0.0635
     44  C32       13.3410  -10.3610   21.5130 C.ar    1  22U1       -0.0289
     45  C33       12.4440  -11.4030   21.6720 C.ar    1  22U1       -0.0570
     46  H33       12.4700  -12.2450   20.9800 H       1  22U1        0.0621
     47  C34       11.5120  -11.3900   22.7010 C.ar    1  22U1       -0.0601
     48  H34       10.8380  -12.2360   22.8370 H       1  22U1        0.0618
     49  C35       11.4380  -10.2950   23.5610 C.ar    1  22U1       -0.0434
     50  H35       10.6840  -10.2670   24.3480 H       1  22U1        0.0632
     51  C36       12.3350   -9.2340   23.4100 C.ar    1  22U1        0.0413
     52 CL36       12.2410   -7.8830   24.5260 Cl      1  22U1       -0.0835
@<TRIPOS>BOND
     1    11    10    1
     2     2     1    1
     3    12    10    1
     4    41    39    1
     5    40    39    1
     6    10     1    1
     7    10     8    1
     8    36    35    2
     9     5     4    1
    10     1     4    1
    11     1     3    1
    12    39    37    1
    13    39    44    1
    14    35    37   am
    15    35     8    1
    16    37    38    1
    17    46    45    1
    18     4     6    1
    19     4     7    1
    20     8     7    1
    21     8     9    1
    22    44    45   ar
    23    44    42   ar
    24     7    13   am
    25    45    47   ar
    26    43    42    1
    27    42    51   ar
    28    16    15    1
    29    19    17    1
    30    47    48    1
    31    47    49   ar
    32    13    14    2
    33    13    15    1
    34    20    17    1
    35    17    15    1
    36    17    18    1
    37    15    21    1
    38    51    49   ar
    39    51    52    1
    40    28    27    1
    41    49    50    1
    42    32    31    1
    43    27    31   ar
    44    27    24   ar
    45    31    33   ar
    46    21    24    1
    47    21    22    1
    48    21    23    1
    49    24    25   ar
    50    33    34    1
    51    33    29   ar
    52    25    29   ar
    53    25    26    1
    54    29    30    1
